Hello World! It's me.
New line
new user on new computer
new line.................
